 # Al12 Ni4
 CRYSTAL
 PRIMVEC
      4.80688500        0.00000000        0.00000000
      0.00000000        6.55681600        0.00000000
      0.00000000        0.00000000        7.29431300
 CONVVEC
      4.80688500        0.00000000        0.00000000
      0.00000000        6.55681600        0.00000000
      0.00000000        0.00000000        7.29431300
 PRIMCOORD
       16 1
13        4.39913617        0.05617224        1.82357825
13        1.73555948        1.12405464        3.24901101
13        1.73555948        1.12405464        0.39814549
13        4.13900198        2.15435336        4.04530199
13        0.66788302        4.40246264        3.24901101
13        3.07132552        5.43276136        6.89616751
13        0.66788302        4.40246264        0.39814549
13        3.07132552        5.43276136        4.04530199
13        4.13900198        2.15435336        6.89616751
13        2.81119133        3.33458024        1.82357825
13        0.40774883        6.50064376        5.47073475
13        1.99569367        3.22223576        5.47073475
28        2.13346861        5.71265872        1.82357825
28        0.26997389        2.43425072        1.82357825
28        2.67341639        0.84415728        5.47073475
28        4.53691111        4.12256528        5.47073475
